Version 4
SHEET 1 9116 4492
WIRE 1744 -1184 1744 -1216
WIRE 1808 -1104 1744 -1104
WIRE 1936 -1104 1888 -1104
WIRE 1744 -1088 1744 -1104
WIRE 1744 -992 1744 -1008
WIRE 1824 -912 1760 -912
WIRE 1936 -912 1936 -1104
WIRE 1936 -912 1904 -912
WIRE 1968 -912 1936 -912
WIRE 2192 -912 2048 -912
WIRE 2224 -912 2192 -912
WIRE 2336 -912 2304 -912
WIRE 2336 -832 2336 -912
WIRE 1936 -816 1936 -912
WIRE 1968 -816 1936 -816
WIRE 2080 -816 2032 -816
WIRE 32 -752 32 -800
WIRE 2192 -720 2192 -912
WIRE 2000 -704 2000 -720
WIRE 1936 -688 1936 -816
WIRE 1968 -688 1936 -688
WIRE 2080 -672 2080 -816
WIRE 2080 -672 2032 -672
WIRE 2128 -672 2080 -672
WIRE 32 -656 32 -672
WIRE 1968 -656 1952 -656
WIRE 1952 -624 1952 -656
WIRE 2000 -608 2000 -640
WIRE 2192 -592 2192 -624
WIRE 32 -512 32 -560
WIRE 32 -416 32 -432
WIRE 1936 -416 1904 -416
WIRE 2352 -416 2016 -416
WIRE 32 -256 32 -304
WIRE 1904 -256 1904 -416
WIRE 2000 -256 1904 -256
WIRE 1904 -240 1904 -256
WIRE 2256 -240 2224 -240
WIRE 2272 -240 2256 -240
WIRE 2192 -224 2192 -512
WIRE 2224 -192 2224 -240
WIRE 2272 -192 2272 -240
WIRE 32 -160 32 -176
WIRE 2352 -160 2352 -416
WIRE 2352 -160 2336 -160
WIRE 1904 -144 1904 -160
WIRE 2352 -144 2352 -160
WIRE 2000 -64 2000 -128
WIRE 2352 -16 2352 -64
WIRE 2000 32 2000 16
WIRE 2096 160 1984 160
WIRE 2256 160 2256 -240
WIRE 2256 160 2176 160
WIRE 64 256 64 224
WIRE 64 368 64 336
WIRE 144 368 64 368
WIRE 64 400 64 368
WIRE 144 448 144 368
WIRE 64 528 64 480
WIRE 1696 528 1696 496
WIRE 1760 608 1696 608
WIRE 1920 608 1840 608
WIRE 1696 624 1696 608
WIRE 1696 720 1696 704
WIRE 1808 784 1744 784
WIRE 1920 784 1920 608
WIRE 1920 784 1888 784
WIRE 1952 784 1920 784
WIRE 2176 784 2032 784
WIRE 2208 784 2176 784
WIRE 2320 784 2288 784
WIRE 2320 864 2320 784
WIRE 1920 880 1920 784
WIRE 1952 880 1920 880
WIRE 2064 880 2016 880
WIRE 2176 976 2176 784
WIRE 1984 992 1984 976
WIRE 1920 1008 1920 880
WIRE 1952 1008 1920 1008
WIRE 2064 1024 2064 880
WIRE 2064 1024 2016 1024
WIRE 2112 1024 2064 1024
WIRE 1952 1040 1936 1040
WIRE 1936 1072 1936 1040
WIRE 1984 1088 1984 1056
WIRE 2176 1104 2176 1072
WIRE 1920 1280 1888 1280
WIRE 2336 1280 2000 1280
WIRE 1888 1440 1888 1280
WIRE 1984 1440 1888 1440
WIRE 1888 1456 1888 1440
WIRE 2240 1456 2208 1456
WIRE 2256 1456 2240 1456
WIRE 2176 1472 2176 1184
WIRE 2208 1504 2208 1456
WIRE 2256 1504 2256 1456
WIRE 2336 1536 2336 1280
WIRE 2336 1536 2320 1536
WIRE 1888 1552 1888 1536
WIRE 2336 1552 2336 1536
WIRE 1984 1632 1984 1568
WIRE 2336 1680 2336 1632
WIRE 1984 1728 1984 1712
WIRE 2080 1856 1968 1856
WIRE 2240 1856 2240 1456
WIRE 2240 1856 2160 1856
FLAG 64 224 +12
FLAG 64 528 -12
FLAG 144 448 0
FLAG 2096 -256 +12
FLAG 2096 -128 -12
FLAG 2352 -16 -12
FLAG 2000 32 0
FLAG 1904 -144 0
FLAG 32 -656 0
FLAG 32 -800 Vref
FLAG 32 -416 0
FLAG 32 -560 CVMin
FLAG 32 -160 0
FLAG 32 -304 CVMax
FLAG 1984 160 Vref
FLAG 2000 -720 +12
FLAG 2000 -608 -12
FLAG 1952 -624 0
FLAG 1760 -912 CVMin
FLAG 2336 -832 0
FLAG 2080 1440 +12
FLAG 2080 1568 -12
FLAG 2336 1680 -12
FLAG 1984 1728 0
FLAG 1888 1552 0
FLAG 1968 1856 Vref
FLAG 1984 976 +12
FLAG 1984 1088 -12
FLAG 1936 1072 0
FLAG 1744 784 CVMax
FLAG 2320 864 0
FLAG 1744 -992 0
FLAG 1744 -1216 +12
FLAG 1696 720 0
FLAG 1696 496 +12
SYMBOL voltage 64 240 R0
SYMATTR InstName V1
SYMATTR Value 12
SYMBOL voltage 64 384 R0
SYMATTR InstName V2
SYMATTR Value 12
SYMBOL LM13700 2064 -272 R0
SYMATTR InstName U2
SYMBOL res 1984 -80 R0
SYMATTR InstName R1
SYMATTR Value 120
SYMBOL res 1888 -256 R0
SYMATTR InstName R2
SYMATTR Value 120
SYMBOL res 2032 -432 R90
WINDOW 0 0 56 VBottom 2
WINDOW 3 32 56 VTop 2
SYMATTR InstName R3
SYMATTR Value 22k
SYMBOL res 2336 -160 R0
SYMATTR InstName R4
SYMATTR Value 4.7k
SYMBOL voltage 32 -768 R0
SYMATTR InstName V3
SYMATTR Value 5
SYMBOL voltage 32 -528 R0
SYMATTR InstName V4
SYMATTR Value 0.005
SYMBOL voltage 32 -272 R0
SYMATTR InstName V5
SYMATTR Value 3.3
SYMBOL res 2080 176 R270
WINDOW 0 32 56 VTop 2
WINDOW 3 0 56 VBottom 2
SYMATTR InstName R5
SYMATTR Value 1k
SYMBOL OpAmps/LT1058 2000 -736 R0
SYMATTR InstName U1
SYMBOL res 2064 -928 R90
WINDOW 0 0 56 VBottom 2
WINDOW 3 32 56 VTop 2
SYMATTR InstName R6
SYMATTR Value 33k
SYMBOL res 1920 -928 R90
WINDOW 0 0 56 VBottom 2
WINDOW 3 32 56 VTop 2
SYMATTR InstName R7
SYMATTR Value 100k
SYMBOL pnp 2128 -624 M180
SYMATTR InstName Q1
SYMBOL res 2320 -928 R90
WINDOW 0 0 56 VBottom 2
WINDOW 3 32 56 VTop 2
SYMATTR InstName R8
SYMATTR Value 1k
SYMBOL cap 2032 -832 R90
WINDOW 0 0 32 VBottom 2
WINDOW 3 32 32 VTop 2
SYMATTR InstName C1
SYMATTR Value 1n
SYMBOL res 2176 -608 R0
SYMATTR InstName R9
SYMATTR Value 4.7k
SYMBOL LM13700 2048 1424 R0
SYMATTR InstName U3
SYMBOL res 1968 1616 R0
SYMATTR InstName R10
SYMATTR Value 120
SYMBOL res 1872 1440 R0
SYMATTR InstName R11
SYMATTR Value 120
SYMBOL res 2016 1264 R90
WINDOW 0 0 56 VBottom 2
WINDOW 3 32 56 VTop 2
SYMATTR InstName R12
SYMATTR Value 22k
SYMBOL res 2320 1536 R0
SYMATTR InstName R13
SYMATTR Value 4.7k
SYMBOL res 2064 1872 R270
WINDOW 0 32 56 VTop 2
WINDOW 3 0 56 VBottom 2
SYMATTR InstName R14
SYMATTR Value 1k
SYMBOL OpAmps/LT1058 1984 960 R0
SYMATTR InstName U4
SYMBOL res 2048 768 R90
WINDOW 0 0 56 VBottom 2
WINDOW 3 32 56 VTop 2
SYMATTR InstName R15
SYMATTR Value 33k
SYMBOL res 1904 768 R90
WINDOW 0 0 56 VBottom 2
WINDOW 3 32 56 VTop 2
SYMATTR InstName R16
SYMATTR Value 100k
SYMBOL pnp 2112 1072 M180
SYMATTR InstName Q2
SYMBOL res 2304 768 R90
WINDOW 0 0 56 VBottom 2
WINDOW 3 32 56 VTop 2
SYMATTR InstName R17
SYMATTR Value 1k
SYMBOL cap 2016 864 R90
WINDOW 0 0 32 VBottom 2
WINDOW 3 32 32 VTop 2
SYMATTR InstName C2
SYMATTR Value 1n
SYMBOL res 2160 1088 R0
SYMATTR InstName R18
SYMATTR Value 4.7k
SYMBOL res 1728 -1104 R0
SYMATTR InstName R19
SYMATTR Value 1k
SYMBOL res 1728 -1200 R0
SYMATTR InstName R20
SYMATTR Value 15k
SYMBOL res 1904 -1120 R90
WINDOW 0 0 56 VBottom 2
WINDOW 3 32 56 VTop 2
SYMATTR InstName R21
SYMATTR Value 100k
SYMBOL res 1680 608 R0
SYMATTR InstName R22
SYMATTR Value 1k
SYMBOL res 1680 512 R0
SYMATTR InstName R23
SYMATTR Value 15k
SYMBOL res 1856 592 R90
WINDOW 0 0 56 VBottom 2
WINDOW 3 32 56 VTop 2
SYMATTR InstName R24
SYMATTR Value 100k
TEXT -40 112 Left 2 !.tran 150m UIC
TEXT -48 -72 Left 2 !.lib lm13700.sub
