Version 4
SHEET 1 6452 3692
WIRE 1408 -704 1408 -736
WIRE 1472 -624 1408 -624
WIRE 1584 -624 1552 -624
WIRE 1408 -608 1408 -624
WIRE 1408 -512 1408 -528
WIRE 1472 -416 1408 -416
WIRE 1584 -416 1584 -624
WIRE 1584 -416 1552 -416
WIRE 1616 -416 1584 -416
WIRE 1840 -416 1696 -416
WIRE 1872 -416 1840 -416
WIRE 1984 -416 1952 -416
WIRE 1984 -336 1984 -416
WIRE 1584 -320 1584 -416
WIRE 1616 -320 1584 -320
WIRE 1728 -320 1680 -320
WIRE 1840 -224 1840 -416
WIRE 1648 -208 1648 -224
WIRE 1584 -192 1584 -320
WIRE 1616 -192 1584 -192
WIRE 1728 -176 1728 -320
WIRE 1728 -176 1680 -176
WIRE 1776 -176 1728 -176
WIRE 1616 -160 1600 -160
WIRE 1600 -128 1600 -160
WIRE 1872 -128 1840 -128
WIRE 2448 -128 1872 -128
WIRE 1648 -112 1648 -144
WIRE 1872 -32 1872 -128
WIRE 2448 0 2448 -128
WIRE 1936 128 1680 128
WIRE 2064 128 2016 128
WIRE 2272 128 2240 128
WIRE 2640 128 2352 128
WIRE 2064 208 2064 128
WIRE 2112 208 2064 208
WIRE 2240 208 2240 128
WIRE 2240 208 2192 208
WIRE 2256 208 2240 208
WIRE 1872 240 1872 48
WIRE 2448 240 2448 80
WIRE 64 256 64 224
WIRE 1808 256 1792 256
WIRE 1840 256 1808 256
WIRE 2064 256 2064 208
WIRE 2112 256 2064 256
WIRE 2512 256 2480 256
WIRE 2528 256 2512 256
WIRE 1792 272 1792 256
WIRE 1840 272 1840 256
WIRE 2480 272 2480 256
WIRE 2528 272 2528 256
WIRE 2240 288 2240 208
WIRE 2240 288 2176 288
WIRE 1680 320 1680 128
WIRE 1728 320 1728 304
WIRE 1728 320 1680 320
WIRE 2112 320 2112 256
WIRE 2208 320 2112 320
WIRE 2592 320 2592 304
WIRE 2640 320 2640 128
WIRE 2640 320 2592 320
WIRE 1728 336 1728 320
WIRE 2176 336 2176 288
WIRE 2176 336 2064 336
WIRE 2208 336 2208 320
WIRE 2256 336 2208 336
WIRE 64 368 64 336
WIRE 144 368 64 368
WIRE 64 400 64 368
WIRE 2592 432 2592 400
WIRE 144 448 144 368
WIRE 1728 480 1728 416
WIRE 64 528 64 480
WIRE 2512 576 2512 256
WIRE 1808 704 1808 256
WIRE 2512 704 2512 656
WIRE 64 784 64 704
WIRE 1808 800 1808 784
WIRE 64 880 64 864
FLAG 64 224 +12
FLAG 64 528 -12
FLAG 144 448 0
FLAG 64 880 0
FLAG 64 704 CV_MIN
FLAG 1968 208 +12
FLAG 2352 208 +12
FLAG 1968 336 -12
FLAG 2352 336 -12
FLAG 1728 480 -12
FLAG 2592 432 -12
FLAG 1648 -224 +12
FLAG 1648 -112 -12
FLAG 1600 -128 0
FLAG 1408 -416 CV_MIN
FLAG 1984 -336 0
FLAG 1808 800 0
FLAG 2512 704 0
FLAG 1408 -512 0
FLAG 1408 -736 +12
SYMBOL voltage 64 240 R0
SYMATTR InstName V1
SYMATTR Value 12
SYMBOL voltage 64 384 R0
SYMATTR InstName V2
SYMATTR Value 12
SYMBOL voltage 64 768 R0
SYMATTR InstName V3
SYMATTR Value 3.3
SYMBOL LM13700 2000 192 M0
SYMATTR InstName U9
SYMBOL LM13700 2320 192 R0
SYMATTR InstName U10
SYMBOL res 2208 192 R90
WINDOW 0 0 56 VBottom 2
WINDOW 3 32 56 VTop 2
SYMATTR InstName R47
SYMATTR Value 240
SYMBOL res 2368 112 R90
WINDOW 0 0 56 VBottom 2
WINDOW 3 32 56 VTop 2
SYMATTR InstName R48
SYMATTR Value 470k
SYMBOL res 2032 112 R90
WINDOW 0 0 56 VBottom 2
WINDOW 3 32 56 VTop 2
SYMATTR InstName R49
SYMATTR Value 470k
SYMBOL res 1712 320 R0
SYMATTR InstName R50
SYMATTR Value 10k
SYMBOL res 2576 304 R0
SYMATTR InstName R51
SYMATTR Value 10k
SYMBOL OpAmps/LT1058 1648 -240 R0
SYMATTR InstName U11
SYMBOL res 1712 -432 R90
WINDOW 0 0 56 VBottom 2
WINDOW 3 32 56 VTop 2
SYMATTR InstName R33
SYMATTR Value 33k
SYMBOL res 1568 -432 R90
WINDOW 0 0 56 VBottom 2
WINDOW 3 32 56 VTop 2
SYMATTR InstName R52
SYMATTR Value 47k
SYMBOL pnp 1776 -128 M180
SYMATTR InstName Q7
SYMBOL res 1968 -432 R90
WINDOW 0 0 56 VBottom 2
WINDOW 3 32 56 VTop 2
SYMATTR InstName R53
SYMATTR Value 1k
SYMBOL cap 1680 -336 R90
WINDOW 0 0 32 VBottom 2
WINDOW 3 32 32 VTop 2
SYMATTR InstName C17
SYMATTR Value 1n
SYMBOL res 1856 -48 R0
SYMATTR InstName R54
SYMATTR Value 4.7k
SYMBOL res 2432 -16 R0
SYMATTR InstName R55
SYMATTR Value 4.7k
SYMBOL voltage 1808 688 R0
SYMATTR InstName V4
SYMATTR Value 10
SYMBOL res 2496 560 R0
SYMATTR InstName R1
SYMATTR Value 1k
SYMBOL res 1392 -624 R0
SYMATTR InstName R2
SYMATTR Value 680
SYMBOL res 1392 -720 R0
SYMATTR InstName R3
SYMATTR Value 24k
SYMBOL res 1568 -640 R90
WINDOW 0 0 56 VBottom 2
WINDOW 3 32 56 VTop 2
SYMATTR InstName R4
SYMATTR Value 47k
TEXT -40 112 Left 2 !.tran 350m UIC
TEXT -32 80 Left 2 !.lib lm13700.sub
TEXT 2264 584 Left 2 ;Rx = 1/Ir1
