Version 4
SHEET 1 6452 3692
WIRE 3232 -496 3168 -496
WIRE 3344 -496 3312 -496
WIRE 3376 -496 3344 -496
WIRE 3600 -496 3456 -496
WIRE 3632 -496 3600 -496
WIRE 3744 -496 3712 -496
WIRE 1472 -416 1408 -416
WIRE 1584 -416 1552 -416
WIRE 1616 -416 1584 -416
WIRE 1840 -416 1696 -416
WIRE 1872 -416 1840 -416
WIRE 1984 -416 1952 -416
WIRE 3744 -416 3744 -496
WIRE 3344 -400 3344 -496
WIRE 3376 -400 3344 -400
WIRE 3488 -400 3440 -400
WIRE 1984 -336 1984 -416
WIRE 1584 -320 1584 -416
WIRE 1616 -320 1584 -320
WIRE 1728 -320 1680 -320
WIRE 3600 -304 3600 -496
WIRE 3408 -288 3408 -304
WIRE 3344 -272 3344 -400
WIRE 3376 -272 3344 -272
WIRE 3488 -256 3488 -400
WIRE 3488 -256 3440 -256
WIRE 3536 -256 3488 -256
WIRE 3376 -240 3360 -240
WIRE 1840 -224 1840 -416
WIRE 1648 -208 1648 -224
WIRE 3360 -208 3360 -240
WIRE 1584 -192 1584 -320
WIRE 1616 -192 1584 -192
WIRE 3408 -192 3408 -224
WIRE 1728 -176 1728 -320
WIRE 1728 -176 1680 -176
WIRE 1776 -176 1728 -176
WIRE 3600 -176 3600 -208
WIRE 1616 -160 1600 -160
WIRE 1600 -128 1600 -160
WIRE 1872 -128 1840 -128
WIRE 2448 -128 1872 -128
WIRE 1648 -112 1648 -144
WIRE 1872 -32 1872 -128
WIRE 2448 0 2448 -128
WIRE 3440 16 3312 16
WIRE 3776 16 3520 16
WIRE 1936 128 1680 128
WIRE 2064 128 2016 128
WIRE 2272 128 2240 128
WIRE 2640 128 2352 128
WIRE 3312 128 3312 16
WIRE 3408 128 3312 128
WIRE 3600 160 3600 -96
WIRE 3648 176 3632 176
WIRE 3680 176 3648 176
WIRE 3632 192 3632 176
WIRE 3680 192 3680 176
WIRE 2064 208 2064 128
WIRE 2112 208 2064 208
WIRE 2240 208 2240 128
WIRE 2240 208 2192 208
WIRE 2256 208 2240 208
WIRE 3312 224 3312 208
WIRE 1872 240 1872 48
WIRE 2448 240 2448 80
WIRE 3744 240 3744 224
WIRE 3776 240 3776 16
WIRE 3776 240 3744 240
WIRE 3904 240 3776 240
WIRE 64 256 64 224
WIRE 1808 256 1792 256
WIRE 1840 256 1808 256
WIRE 2064 256 2064 208
WIRE 2112 256 2064 256
WIRE 2512 256 2480 256
WIRE 2528 256 2512 256
WIRE 3200 256 3136 256
WIRE 3344 256 3280 256
WIRE 3408 256 3344 256
WIRE 1792 272 1792 256
WIRE 1840 272 1840 256
WIRE 2480 272 2480 256
WIRE 2528 272 2528 256
WIRE 2240 288 2240 208
WIRE 2240 288 2176 288
WIRE 3344 288 3344 256
WIRE 3648 304 3648 176
WIRE 1680 320 1680 128
WIRE 1728 320 1728 304
WIRE 1728 320 1680 320
WIRE 2112 320 2112 256
WIRE 2208 320 2112 320
WIRE 2592 320 2592 304
WIRE 2640 320 2640 128
WIRE 2640 320 2592 320
WIRE 1728 336 1728 320
WIRE 2176 336 2176 288
WIRE 2176 336 2064 336
WIRE 2208 336 2208 320
WIRE 2256 336 2208 336
WIRE 3744 352 3744 320
WIRE 64 368 64 336
WIRE 144 368 64 368
WIRE 3344 384 3344 368
WIRE 64 400 64 368
WIRE 3648 400 3648 368
WIRE 2592 432 2592 400
WIRE 144 448 144 368
WIRE 1728 480 1728 416
WIRE 64 528 64 480
WIRE 1808 576 1808 256
WIRE 2512 576 2512 256
WIRE -176 784 -176 704
WIRE 64 784 64 704
WIRE 208 784 208 704
WIRE -176 880 -176 864
WIRE 64 880 64 864
WIRE 208 880 208 864
WIRE 1824 1120 1808 1120
WIRE 1904 1120 1888 1120
WIRE 1936 1120 1904 1120
WIRE 2096 1120 2016 1120
WIRE 2448 1120 2096 1120
WIRE 64 1136 64 1104
WIRE 1904 1152 1904 1120
WIRE 4288 1152 4272 1152
WIRE 4368 1152 4352 1152
WIRE 4400 1152 4368 1152
WIRE 4560 1152 4480 1152
WIRE 4752 1152 4560 1152
WIRE 4992 1152 4832 1152
WIRE 5264 1152 5200 1152
WIRE 5376 1152 5344 1152
WIRE 5408 1152 5376 1152
WIRE 5632 1152 5488 1152
WIRE 5664 1152 5632 1152
WIRE 5776 1152 5744 1152
WIRE 4368 1184 4368 1152
WIRE 1984 1200 1968 1200
WIRE 2096 1200 2096 1120
WIRE 2096 1200 2048 1200
WIRE 2128 1200 2096 1200
WIRE 2224 1200 2192 1200
WIRE 2448 1216 2448 1120
WIRE 4448 1232 4432 1232
WIRE 4560 1232 4560 1152
WIRE 4560 1232 4512 1232
WIRE 4592 1232 4560 1232
WIRE 4688 1232 4656 1232
WIRE 5776 1232 5776 1152
WIRE 1904 1248 1904 1216
WIRE 2096 1248 2096 1200
WIRE 2144 1248 2096 1248
WIRE 5376 1248 5376 1152
WIRE 5408 1248 5376 1248
WIRE 5520 1248 5472 1248
WIRE 64 1264 64 1216
WIRE 2048 1280 2048 1200
WIRE 4368 1280 4368 1248
WIRE 4560 1280 4560 1232
WIRE 4608 1280 4560 1280
WIRE 1744 1296 1744 1264
WIRE 2144 1312 2144 1248
WIRE 4512 1312 4512 1232
WIRE 4208 1328 4208 1296
WIRE 1600 1344 1504 1344
WIRE 1680 1344 1600 1344
WIRE 4608 1344 4608 1280
WIRE 4720 1344 4608 1344
WIRE 5632 1344 5632 1152
WIRE 1504 1360 1504 1344
WIRE 1600 1360 1600 1344
WIRE 5440 1360 5440 1344
WIRE 4064 1376 3968 1376
WIRE 4144 1376 4064 1376
WIRE 5376 1376 5376 1248
WIRE 5408 1376 5376 1376
WIRE 864 1392 864 1376
WIRE 3968 1392 3968 1376
WIRE 4064 1392 4064 1376
WIRE 5520 1392 5520 1248
WIRE 5520 1392 5472 1392
WIRE 5568 1392 5520 1392
WIRE 1744 1408 1744 1392
WIRE 1808 1408 1808 1120
WIRE 1808 1408 1744 1408
WIRE 1856 1408 1808 1408
WIRE 1984 1408 1936 1408
WIRE 2144 1408 2144 1392
WIRE 4720 1408 4608 1408
WIRE 5408 1408 5392 1408
WIRE 3328 1424 3328 1408
WIRE 1504 1440 1504 1424
WIRE 1600 1440 1504 1440
WIRE 4208 1440 4208 1424
WIRE 4272 1440 4272 1152
WIRE 4272 1440 4208 1440
WIRE 4320 1440 4272 1440
WIRE 4448 1440 4400 1440
WIRE 4608 1440 4608 1408
WIRE 5392 1440 5392 1408
WIRE 1504 1456 1504 1440
WIRE 5440 1456 5440 1424
WIRE 2352 1472 2336 1472
WIRE 2448 1472 2448 1296
WIRE 2448 1472 2432 1472
WIRE 3968 1472 3968 1456
WIRE 4064 1472 3968 1472
WIRE 5632 1472 5632 1440
WIRE 864 1488 864 1472
WIRE 928 1488 864 1488
WIRE 3968 1488 3968 1472
WIRE 864 1504 864 1488
WIRE 2144 1520 2144 1488
WIRE 3328 1520 3328 1504
WIRE 3392 1520 3328 1520
WIRE 3328 1536 3328 1520
WIRE 2048 1552 2048 1536
WIRE 4608 1552 4608 1520
WIRE 1968 1584 1968 1200
WIRE 2048 1584 1968 1584
WIRE 2224 1584 2224 1200
WIRE 2224 1584 2128 1584
WIRE 2336 1584 2336 1472
WIRE 2352 1584 2336 1584
WIRE 2448 1584 2448 1472
WIRE 2448 1584 2432 1584
WIRE 4512 1584 4512 1568
WIRE 864 1600 864 1584
WIRE 4992 1600 4992 1152
WIRE 6336 1600 4992 1600
WIRE 4432 1616 4432 1232
WIRE 4512 1616 4432 1616
WIRE 4688 1616 4688 1232
WIRE 4688 1616 4592 1616
WIRE 3328 1632 3328 1616
WIRE 1392 1648 1392 1616
WIRE 992 1664 992 1648
WIRE 6224 1664 6160 1664
WIRE 6336 1664 6336 1600
WIRE 6336 1664 6304 1664
WIRE 928 1680 928 1488
WIRE 960 1680 928 1680
WIRE 3856 1680 3856 1648
WIRE 5344 1680 5264 1680
WIRE 1104 1696 1024 1696
WIRE 1232 1696 1184 1696
WIRE 1328 1696 1232 1696
WIRE 2096 1696 2096 1680
WIRE 3456 1696 3456 1680
WIRE 5264 1696 5264 1680
WIRE 736 1712 704 1712
WIRE 816 1712 800 1712
WIRE 912 1712 816 1712
WIRE 960 1712 912 1712
WIRE 1968 1712 1968 1584
WIRE 2064 1712 1968 1712
WIRE 2400 1712 2400 1696
WIRE 3392 1712 3392 1520
WIRE 3424 1712 3392 1712
WIRE 2224 1728 2224 1584
WIRE 2224 1728 2128 1728
WIRE 2256 1728 2224 1728
WIRE 2336 1728 2336 1584
WIRE 2368 1728 2336 1728
WIRE 3568 1728 3488 1728
WIRE 3696 1728 3648 1728
WIRE 3792 1728 3696 1728
WIRE 4560 1728 4560 1712
WIRE 1232 1744 1232 1696
WIRE 1440 1744 1440 1344
WIRE 1440 1744 1392 1744
WIRE 1808 1744 1440 1744
WIRE 1904 1744 1888 1744
WIRE 2064 1744 1904 1744
WIRE 2448 1744 2448 1584
WIRE 2448 1744 2432 1744
WIRE 3200 1744 3168 1744
WIRE 3280 1744 3264 1744
WIRE 3376 1744 3280 1744
WIRE 3424 1744 3376 1744
WIRE 4432 1744 4432 1616
WIRE 4528 1744 4432 1744
WIRE 816 1760 816 1712
WIRE 912 1760 912 1712
WIRE 992 1760 992 1728
WIRE 2368 1760 2352 1760
WIRE 4688 1760 4688 1616
WIRE 4688 1760 4592 1760
WIRE 5072 1760 4688 1760
WIRE 3696 1776 3696 1728
WIRE 3904 1776 3904 1376
WIRE 3904 1776 3856 1776
WIRE 4272 1776 3904 1776
WIRE 4368 1776 4352 1776
WIRE 4528 1776 4368 1776
WIRE 5344 1776 5344 1680
WIRE 5440 1776 5344 1776
WIRE 2096 1792 2096 1760
WIRE 2224 1792 2224 1728
WIRE 2352 1792 2352 1760
WIRE 3280 1792 3280 1744
WIRE 3376 1792 3376 1744
WIRE 3456 1792 3456 1760
WIRE 5264 1792 5264 1776
WIRE 5696 1792 5664 1792
WIRE 5712 1792 5696 1792
WIRE 6256 1792 6256 1776
WIRE 2400 1808 2400 1776
WIRE 5632 1808 5632 1552
WIRE 6048 1808 5824 1808
WIRE 6160 1808 6160 1664
WIRE 6160 1808 6128 1808
WIRE 6224 1808 6160 1808
WIRE 4560 1824 4560 1792
WIRE 6336 1824 6336 1664
WIRE 6336 1824 6288 1824
WIRE 1904 1840 1904 1744
WIRE 5328 1840 5296 1840
WIRE 5440 1840 5408 1840
WIRE 5664 1840 5664 1792
WIRE 5712 1840 5712 1792
WIRE 6224 1840 6208 1840
WIRE 816 1856 816 1840
WIRE 912 1856 912 1824
WIRE 912 1856 816 1856
WIRE 1232 1856 1232 1824
WIRE 4368 1872 4368 1776
WIRE 5968 1872 5968 1856
WIRE 6208 1872 6208 1840
WIRE 816 1888 816 1856
WIRE 3280 1888 3280 1872
WIRE 3376 1888 3376 1856
WIRE 3376 1888 3280 1888
WIRE 3696 1888 3696 1856
WIRE 5776 1888 5776 1872
WIRE 5824 1888 5824 1808
WIRE 5824 1888 5776 1888
WIRE 6256 1888 6256 1856
WIRE 2224 1904 2224 1856
WIRE 5776 1904 5776 1888
WIRE 3280 1920 3280 1888
WIRE 5696 1920 5696 1792
WIRE 1904 1936 1904 1920
WIRE 4688 1936 4688 1760
WIRE 4368 1968 4368 1952
WIRE 5968 1968 5968 1952
WIRE 6048 1968 5968 1968
WIRE 6160 1968 6160 1808
WIRE 6160 1968 6128 1968
WIRE 5072 1984 5072 1760
WIRE 5216 1984 5072 1984
WIRE 5376 1984 5296 1984
WIRE 5440 1984 5440 1904
WIRE 5440 1984 5376 1984
WIRE 2224 2000 2224 1984
WIRE 5968 2000 5968 1968
WIRE 5376 2016 5376 1984
WIRE 5776 2016 5776 1984
WIRE 5696 2032 5696 2000
WIRE 2224 2096 2224 2080
WIRE 2512 2096 2224 2096
WIRE 5968 2096 5968 2080
WIRE 2224 2112 2224 2096
WIRE 5376 2112 5376 2096
WIRE 4976 2128 4688 2128
WIRE 2736 2160 2736 2128
WIRE 2512 2176 2512 2096
WIRE 2704 2176 2512 2176
WIRE 2224 2192 2224 2176
WIRE 2816 2192 2768 2192
WIRE 5200 2192 5200 2160
WIRE 2704 2208 2672 2208
WIRE 4976 2208 4976 2128
WIRE 5168 2208 4976 2208
WIRE 5280 2224 5232 2224
WIRE 2736 2240 2736 2224
WIRE 5168 2240 5136 2240
WIRE 5200 2272 5200 2256
WIRE 2672 2336 2672 2208
WIRE 2720 2336 2672 2336
WIRE 2816 2336 2816 2192
WIRE 2816 2336 2784 2336
WIRE 2864 2336 2816 2336
WIRE 5136 2368 5136 2240
WIRE 5184 2368 5136 2368
WIRE 5280 2368 5280 2224
WIRE 5280 2368 5248 2368
WIRE 5328 2368 5280 2368
WIRE 2672 2432 2672 2336
WIRE 2720 2432 2672 2432
WIRE 2816 2432 2816 2336
WIRE 2816 2432 2784 2432
WIRE 5136 2464 5136 2368
WIRE 5184 2464 5136 2464
WIRE 5280 2464 5280 2368
WIRE 5280 2464 5248 2464
WIRE 2672 2544 2672 2432
WIRE 2720 2544 2672 2544
WIRE 2816 2544 2816 2432
WIRE 2816 2544 2784 2544
WIRE 5136 2576 5136 2464
WIRE 5184 2576 5136 2576
WIRE 5280 2576 5280 2464
WIRE 5280 2576 5248 2576
WIRE 2672 2656 2672 2544
WIRE 2720 2656 2672 2656
WIRE 2816 2656 2816 2544
WIRE 2816 2656 2800 2656
WIRE 5136 2688 5136 2576
WIRE 5184 2688 5136 2688
WIRE 5280 2688 5280 2576
WIRE 5280 2688 5264 2688
WIRE 2672 2704 2672 2656
WIRE 5136 2736 5136 2688
WIRE 2672 2800 2672 2784
WIRE 5136 2832 5136 2816
FLAG 64 224 +12
FLAG 64 528 -12
FLAG 144 448 0
FLAG 64 880 0
FLAG 64 704 TUNE_CV
FLAG 64 1104 TRIG
FLAG 64 1264 0
FLAG -176 880 0
FLAG -176 704 DECAY_CV
FLAG 704 1712 TRIG
FLAG 992 1648 +12
FLAG 992 1760 -12
FLAG 816 1888 0
FLAG 864 1376 +12
FLAG 864 1600 0
FLAG 1232 1856 0
FLAG 1392 1616 +12
FLAG 2096 1680 +12
FLAG 2096 1792 -12
FLAG 1904 1936 0
FLAG 1504 1456 0
FLAG 1744 1264 +12
FLAG 2048 1552 0
FLAG 2144 1520 0
FLAG 2400 1696 +12
FLAG 2400 1808 -12
FLAG 2352 1792 0
FLAG 1904 1248 0
FLAG 2736 2240 +12
FLAG 2736 2128 -12
FLAG 2224 2192 0
FLAG 2672 2800 0
FLAG 2864 2336 OUT
FLAG 3168 1744 TRIG
FLAG 3456 1680 +12
FLAG 3456 1792 -12
FLAG 3280 1920 0
FLAG 3328 1408 +12
FLAG 3328 1632 0
FLAG 3696 1888 0
FLAG 3856 1648 +12
FLAG 4560 1712 +12
FLAG 4560 1824 -12
FLAG 4368 1968 0
FLAG 3968 1488 0
FLAG 4208 1296 +12
FLAG 4512 1584 0
FLAG 4608 1552 0
FLAG 4368 1280 0
FLAG 5200 2272 +12
FLAG 5200 2160 -12
FLAG 5136 2832 0
FLAG 5328 2368 OUT2
FLAG 1968 208 +12
FLAG 2352 208 +12
FLAG 1968 336 -12
FLAG 2352 336 -12
FLAG 1728 480 -12
FLAG 2592 432 -12
FLAG 4720 1344 RTUNE_A
FLAG 4720 1408 RTUNE_B
FLAG 1808 576 RTUNE_A
FLAG 2512 576 RTUNE_B
FLAG 1648 -224 +12
FLAG 1648 -112 -12
FLAG 1600 -128 0
FLAG 1408 -416 TUNE_CV
FLAG 1984 -336 0
FLAG 4688 1936 TONE_IN
FLAG 4688 2128 TONE_OUT
FLAG 3504 128 +12
FLAG 3504 256 -12
FLAG 3744 352 -12
FLAG 3312 224 0
FLAG 3904 240 TONE_OUT
FLAG 3136 256 TONE_IN
FLAG 3344 384 0
FLAG 208 880 0
FLAG 208 704 TONE_CV
FLAG 3408 -304 +12
FLAG 3408 -192 -12
FLAG 3360 -208 0
FLAG 3168 -496 TONE_CV
FLAG 3744 -416 0
FLAG 5536 1776 +12
FLAG 5536 1904 -12
FLAG 5264 1792 0
FLAG 5376 2112 0
FLAG 5440 1344 +12
FLAG 5440 1456 -12
FLAG 5392 1440 0
FLAG 5776 1232 0
FLAG 5200 1152 DECAY_CV
FLAG 6256 1776 +12
FLAG 6256 1888 -12
FLAG 6208 1872 0
FLAG 5776 2016 -12
FLAG 5696 2032 0
FLAG 3648 400 0
FLAG 5968 1856 +12
FLAG 5968 2096 0
FLAG 5296 1840 +12
SYMBOL voltage 64 240 R0
SYMATTR InstName V1
SYMATTR Value 12
SYMBOL voltage 64 384 R0
SYMATTR InstName V2
SYMATTR Value 12
SYMBOL voltage 64 768 R0
SYMATTR InstName V3
SYMATTR Value 0.25
SYMBOL voltage 64 1120 R0
SYMATTR InstName V4
SYMATTR Value PULSE(0 3.3 2ms 10ns 10ns 5ms 198ms 1)
SYMBOL voltage -176 768 R0
SYMATTR InstName V5
SYMATTR Value 2
SYMBOL OpAmps/LT1058 992 1632 R0
SYMATTR InstName U2
SYMBOL cap 800 1696 R90
WINDOW 0 0 32 VBottom 2
WINDOW 3 32 32 VTop 2
SYMATTR InstName C1
SYMATTR Value 10n
SYMBOL res 800 1744 R0
SYMATTR InstName R1
SYMATTR Value 47k
SYMBOL diode 928 1824 R180
WINDOW 0 24 64 Left 2
WINDOW 3 24 0 Left 2
SYMATTR InstName D1
SYMBOL res 848 1488 R0
SYMATTR InstName R2
SYMATTR Value 22k
SYMBOL res 848 1376 R0
SYMATTR InstName R3
SYMATTR Value 100k
SYMBOL res 1200 1680 R90
WINDOW 0 0 56 VBottom 2
WINDOW 3 32 56 VTop 2
SYMATTR InstName R4
SYMATTR Value 100k
SYMBOL res 1248 1840 R180
WINDOW 0 36 76 Left 2
WINDOW 3 36 40 Left 2
SYMATTR InstName R5
SYMATTR Value 100k
SYMBOL npn 1328 1648 R0
SYMATTR InstName Q1
SYMBOL OpAmps/LT1058 2096 1664 R0
SYMATTR InstName U1
SYMBOL res 1904 1728 R90
WINDOW 0 0 56 VBottom 2
WINDOW 3 32 56 VTop 2
SYMATTR InstName R6
SYMATTR Value 100k
SYMBOL res 1920 1936 R180
WINDOW 0 36 76 Left 2
WINDOW 3 36 40 Left 2
SYMATTR InstName R7
SYMATTR Value 10k
SYMBOL res 2144 1568 R90
WINDOW 0 0 56 VBottom 2
WINDOW 3 32 56 VTop 2
SYMATTR InstName R8
SYMATTR Value 1Meg
SYMBOL diode 1440 1360 R270
WINDOW 0 32 32 VTop 2
WINDOW 3 0 32 VBottom 2
SYMATTR InstName D2
SYMBOL cap 1488 1360 R0
SYMATTR InstName C2
SYMATTR Value 100n
SYMBOL res 1584 1344 R0
SYMATTR InstName R9
SYMATTR Value 47k
SYMBOL npn 1680 1296 R0
SYMATTR InstName Q2
SYMBOL res 2128 1296 R0
SYMATTR InstName R10
SYMATTR Value 100k
SYMBOL res 2128 1392 R0
SYMATTR InstName R11
SYMATTR Value 12k
SYMBOL res 2032 1440 R0
SYMATTR InstName R12
SYMATTR Value 6.8k
SYMBOL res 2032 1264 R0
SYMATTR InstName R13
SYMATTR Value 220
SYMBOL npn 1984 1360 R0
SYMATTR InstName Q3
SYMBOL cap 2048 1184 R90
WINDOW 0 0 32 VBottom 2
WINDOW 3 32 32 VTop 2
SYMATTR InstName C3
SYMATTR Value 15n
SYMBOL cap 2192 1184 R90
WINDOW 0 0 32 VBottom 2
WINDOW 3 32 32 VTop 2
SYMATTR InstName C4
SYMATTR Value 15n
SYMBOL res 1952 1392 R90
WINDOW 0 0 56 VBottom 2
WINDOW 3 32 56 VTop 2
SYMATTR InstName R14
SYMATTR Value 100k
SYMBOL OpAmps/LT1058 2400 1680 R0
SYMATTR InstName U3
SYMBOL res 2352 1712 R90
WINDOW 0 0 56 VBottom 2
WINDOW 3 32 56 VTop 2
SYMATTR InstName R15
SYMATTR Value 47k
SYMBOL res 2448 1568 R90
WINDOW 0 0 56 VBottom 2
WINDOW 3 32 56 VTop 2
SYMATTR InstName R16
SYMATTR Value 47k
SYMBOL res 2448 1456 R90
WINDOW 0 0 56 VBottom 2
WINDOW 3 32 56 VTop 2
SYMATTR InstName R17
SYMATTR Value 1
SYMBOL res 2432 1200 R0
SYMATTR InstName R18
SYMATTR Value 470k
SYMBOL cap 1888 1104 R90
WINDOW 0 0 32 VBottom 2
WINDOW 3 32 32 VTop 2
SYMATTR InstName C5
SYMATTR Value 4.7n
SYMBOL res 2032 1104 R90
WINDOW 0 0 56 VBottom 2
WINDOW 3 32 56 VTop 2
SYMATTR InstName R19
SYMATTR Value 1Meg
SYMBOL diode 1888 1152 R0
SYMATTR InstName D3
SYMBOL OpAmps/LT1058 2736 2256 M180
SYMATTR InstName U4
SYMBOL res 2208 1888 R0
SYMATTR InstName R20
SYMATTR Value 33k
SYMBOL res 2208 1984 R0
SYMATTR InstName R21
SYMATTR Value 1k
SYMBOL cap 2208 2112 R0
SYMATTR InstName C6
SYMATTR Value 10n
SYMBOL diode 2784 2320 R90
WINDOW 0 0 32 VBottom 2
WINDOW 3 32 32 VTop 2
SYMATTR InstName D4
SYMBOL diode 2720 2448 R270
WINDOW 0 32 32 VTop 2
WINDOW 3 0 32 VBottom 2
SYMATTR InstName D5
SYMBOL res 2816 2640 R90
WINDOW 0 0 56 VBottom 2
WINDOW 3 32 56 VTop 2
SYMATTR InstName R22
SYMATTR Value 68k
SYMBOL res 2688 2800 R180
WINDOW 0 36 76 Left 2
WINDOW 3 36 40 Left 2
SYMATTR InstName R23
SYMATTR Value 47k
SYMBOL cap 2784 2528 R90
WINDOW 0 0 32 VBottom 2
WINDOW 3 32 32 VTop 2
SYMATTR InstName C7
SYMATTR Value 10n
SYMBOL cap 2208 1792 R0
SYMATTR InstName C8
SYMATTR Value 1µ
SYMBOL OpAmps/LT1058 3456 1664 R0
SYMATTR InstName U5
SYMBOL cap 3264 1728 R90
WINDOW 0 0 32 VBottom 2
WINDOW 3 32 32 VTop 2
SYMATTR InstName C9
SYMATTR Value 10n
SYMBOL res 3264 1776 R0
SYMATTR InstName R24
SYMATTR Value 47k
SYMBOL diode 3392 1856 R180
WINDOW 0 24 64 Left 2
WINDOW 3 24 0 Left 2
SYMATTR InstName D6
SYMBOL res 3312 1520 R0
SYMATTR InstName R25
SYMATTR Value 22k
SYMBOL res 3312 1408 R0
SYMATTR InstName R26
SYMATTR Value 100k
SYMBOL res 3664 1712 R90
WINDOW 0 0 56 VBottom 2
WINDOW 3 32 56 VTop 2
SYMATTR InstName R27
SYMATTR Value 100k
SYMBOL res 3712 1872 R180
WINDOW 0 36 76 Left 2
WINDOW 3 36 40 Left 2
SYMATTR InstName R28
SYMATTR Value 100k
SYMBOL npn 3792 1680 R0
SYMATTR InstName Q4
SYMBOL OpAmps/LT1058 4560 1696 R0
SYMATTR InstName U6
SYMBOL res 4368 1760 R90
WINDOW 0 0 56 VBottom 2
WINDOW 3 32 56 VTop 2
SYMATTR InstName R29
SYMATTR Value 100k
SYMBOL res 4384 1968 R180
WINDOW 0 36 76 Left 2
WINDOW 3 36 40 Left 2
SYMATTR InstName R30
SYMATTR Value 10k
SYMBOL res 4608 1600 R90
WINDOW 0 0 56 VBottom 2
WINDOW 3 32 56 VTop 2
SYMATTR InstName R31
SYMATTR Value 1Meg
SYMBOL diode 3904 1392 R270
WINDOW 0 32 32 VTop 2
WINDOW 3 0 32 VBottom 2
SYMATTR InstName D7
SYMBOL cap 3952 1392 R0
SYMATTR InstName C10
SYMATTR Value 100n
SYMBOL res 4048 1376 R0
SYMATTR InstName R32
SYMATTR Value 22k
SYMBOL npn 4144 1328 R0
SYMATTR InstName Q5
SYMBOL res 4592 1424 R0
SYMATTR InstName R34
SYMATTR Value 12k
SYMBOL res 4496 1472 R0
SYMATTR InstName R35
SYMATTR Value 6.8k
SYMBOL res 4496 1296 R0
SYMATTR InstName R36
SYMATTR Value 470
SYMBOL npn 4448 1392 R0
SYMATTR InstName Q6
SYMBOL cap 4512 1216 R90
WINDOW 0 0 32 VBottom 2
WINDOW 3 32 32 VTop 2
SYMATTR InstName C11
SYMATTR Value 15n
SYMBOL cap 4656 1216 R90
WINDOW 0 0 32 VBottom 2
WINDOW 3 32 32 VTop 2
SYMATTR InstName C12
SYMATTR Value 15n
SYMBOL res 4416 1424 R90
WINDOW 0 0 56 VBottom 2
WINDOW 3 32 56 VTop 2
SYMATTR InstName R37
SYMATTR Value 100k
SYMBOL res 4848 1136 R90
WINDOW 0 0 56 VBottom 2
WINDOW 3 32 56 VTop 2
SYMATTR InstName R41
SYMATTR Value 470k
SYMBOL cap 4352 1136 R90
WINDOW 0 0 32 VBottom 2
WINDOW 3 32 32 VTop 2
SYMATTR InstName C13
SYMATTR Value 4.7n
SYMBOL res 4496 1136 R90
WINDOW 0 0 56 VBottom 2
WINDOW 3 32 56 VTop 2
SYMATTR InstName R42
SYMATTR Value 1Meg
SYMBOL diode 4352 1184 R0
SYMATTR InstName D8
SYMBOL OpAmps/LT1058 5200 2288 M180
SYMATTR InstName U8
SYMBOL diode 5248 2352 R90
WINDOW 0 0 32 VBottom 2
WINDOW 3 32 32 VTop 2
SYMATTR InstName D9
SYMBOL diode 5184 2480 R270
WINDOW 0 32 32 VTop 2
WINDOW 3 0 32 VBottom 2
SYMATTR InstName D10
SYMBOL res 5280 2672 R90
WINDOW 0 0 56 VBottom 2
WINDOW 3 32 56 VTop 2
SYMATTR InstName R45
SYMATTR Value 68k
SYMBOL res 5152 2832 R180
WINDOW 0 36 76 Left 2
WINDOW 3 36 40 Left 2
SYMATTR InstName R46
SYMATTR Value 47k
SYMBOL cap 5248 2560 R90
WINDOW 0 0 32 VBottom 2
WINDOW 3 32 32 VTop 2
SYMATTR InstName C15
SYMATTR Value 10n
SYMBOL LM13700 2000 192 M0
SYMATTR InstName U9
SYMBOL LM13700 2320 192 R0
SYMATTR InstName U10
SYMBOL res 2208 192 R90
WINDOW 0 0 56 VBottom 2
WINDOW 3 32 56 VTop 2
SYMATTR InstName R47
SYMATTR Value 10k
SYMBOL res 2368 112 R90
WINDOW 0 0 56 VBottom 2
WINDOW 3 32 56 VTop 2
SYMATTR InstName R48
SYMATTR Value 100k
SYMBOL res 2032 112 R90
WINDOW 0 0 56 VBottom 2
WINDOW 3 32 56 VTop 2
SYMATTR InstName R49
SYMATTR Value 100k
SYMBOL res 1712 320 R0
SYMATTR InstName R50
SYMATTR Value 10k
SYMBOL res 2576 304 R0
SYMATTR InstName R51
SYMATTR Value 10k
SYMBOL OpAmps/LT1058 1648 -240 R0
SYMATTR InstName U11
SYMBOL res 1712 -432 R90
WINDOW 0 0 56 VBottom 2
WINDOW 3 32 56 VTop 2
SYMATTR InstName R33
SYMATTR Value 33k
SYMBOL res 1568 -432 R90
WINDOW 0 0 56 VBottom 2
WINDOW 3 32 56 VTop 2
SYMATTR InstName R52
SYMATTR Value 100k
SYMBOL pnp 1776 -128 M180
SYMATTR InstName Q7
SYMBOL res 1968 -432 R90
WINDOW 0 0 56 VBottom 2
WINDOW 3 32 56 VTop 2
SYMATTR InstName R53
SYMATTR Value 1.8k
SYMBOL cap 1680 -336 R90
WINDOW 0 0 32 VBottom 2
WINDOW 3 32 32 VTop 2
SYMATTR InstName C17
SYMATTR Value 1n
SYMBOL res 1856 -48 R0
SYMATTR InstName R54
SYMATTR Value 4.7k
SYMBOL res 2432 -16 R0
SYMATTR InstName R55
SYMATTR Value 4.7k
SYMBOL LM13700 3472 112 R0
SYMATTR InstName U12
SYMBOL res 3728 224 R0
SYMATTR InstName R43
SYMATTR Value 10k
SYMBOL res 3296 112 R0
SYMATTR InstName R40
SYMATTR Value 220
SYMBOL res 3536 0 R90
WINDOW 0 0 56 VBottom 2
WINDOW 3 32 56 VTop 2
SYMATTR InstName R44
SYMATTR Value 100k
SYMBOL res 3296 240 R90
WINDOW 0 0 56 VBottom 2
WINDOW 3 32 56 VTop 2
SYMATTR InstName R56
SYMATTR Value 100k
SYMBOL res 3360 384 R180
WINDOW 0 36 76 Left 2
WINDOW 3 36 40 Left 2
SYMATTR InstName R57
SYMATTR Value 220
SYMBOL voltage 208 768 R0
SYMATTR InstName V6
SYMATTR Value 3.3
SYMBOL OpAmps/LT1058 3408 -320 R0
SYMATTR InstName U13
SYMBOL res 3472 -512 R90
WINDOW 0 0 56 VBottom 2
WINDOW 3 32 56 VTop 2
SYMATTR InstName R58
SYMATTR Value 33k
SYMBOL res 3328 -512 R90
WINDOW 0 0 56 VBottom 2
WINDOW 3 32 56 VTop 2
SYMATTR InstName R59
SYMATTR Value 100k
SYMBOL pnp 3536 -208 M180
SYMATTR InstName Q8
SYMBOL res 3728 -512 R90
WINDOW 0 0 56 VBottom 2
WINDOW 3 32 56 VTop 2
SYMATTR InstName R60
SYMATTR Value 1k
SYMBOL cap 3440 -416 R90
WINDOW 0 0 32 VBottom 2
WINDOW 3 32 32 VTop 2
SYMATTR InstName C14
SYMATTR Value 1n
SYMBOL res 3584 -192 R0
SYMATTR InstName R61
SYMATTR Value 4.7k
SYMBOL LM13700 5504 1760 R0
SYMATTR InstName U7
SYMBOL res 5248 1680 R0
SYMATTR InstName R39
SYMATTR Value 220
SYMBOL res 5312 1968 R90
WINDOW 0 0 56 VBottom 2
WINDOW 3 32 56 VTop 2
SYMATTR InstName R63
SYMATTR Value 33k
SYMBOL res 5392 2112 R180
WINDOW 0 36 76 Left 2
WINDOW 3 36 40 Left 2
SYMATTR InstName R64
SYMATTR Value 220
SYMBOL OpAmps/LT1058 5440 1328 R0
SYMATTR InstName U14
SYMBOL res 5504 1136 R90
WINDOW 0 0 56 VBottom 2
WINDOW 3 32 56 VTop 2
SYMATTR InstName R65
SYMATTR Value 27k
SYMBOL res 5360 1136 R90
WINDOW 0 0 56 VBottom 2
WINDOW 3 32 56 VTop 2
SYMATTR InstName R66
SYMATTR Value 100k
SYMBOL pnp 5568 1440 M180
SYMATTR InstName Q9
SYMBOL res 5760 1136 R90
WINDOW 0 0 56 VBottom 2
WINDOW 3 32 56 VTop 2
SYMATTR InstName R67
SYMATTR Value 1k
SYMBOL cap 5472 1232 R90
WINDOW 0 0 32 VBottom 2
WINDOW 3 32 32 VTop 2
SYMATTR InstName C18
SYMATTR Value 1n
SYMBOL res 5616 1456 R0
SYMATTR InstName R68
SYMATTR Value 4.7k
SYMBOL OpAmps/LT1058 6256 1760 R0
SYMATTR InstName U16
SYMBOL res 6320 1648 R90
WINDOW 0 0 56 VBottom 2
WINDOW 3 32 56 VTop 2
SYMATTR InstName R62
SYMATTR Value 33k
SYMBOL res 6144 1792 R90
WINDOW 0 0 56 VBottom 2
WINDOW 3 32 56 VTop 2
SYMATTR InstName R69
SYMATTR Value 33k
SYMBOL res 5760 1888 R0
SYMATTR InstName R70
SYMATTR Value 4.7k
SYMBOL res 5680 1904 R0
SYMATTR InstName R71
SYMATTR Value 39k
SYMBOL cap 3632 304 R0
SYMATTR InstName C20
SYMATTR Value 220p
SYMBOL res 6144 1952 R90
WINDOW 0 0 56 VBottom 2
WINDOW 3 32 56 VTop 2
SYMATTR InstName R38
SYMATTR Value 33k
SYMBOL res 5952 1856 R0
SYMATTR InstName R72
SYMATTR Value 22k
SYMBOL res 5952 1984 R0
SYMATTR InstName R73
SYMATTR Value 3.6k
SYMBOL res 5424 1824 R90
WINDOW 0 0 56 VBottom 2
WINDOW 3 32 56 VTop 2
SYMATTR InstName R74
SYMATTR Value 12k
TEXT -40 112 Left 2 !.tran 350m UIC
TEXT -32 80 Left 2 !.lib lm13700.sub
TEXT 1480 1512 Left 2 ;R9 controls the pitch env attack length
TEXT 2176 1280 Left 2 ;R10 = Tune pot 100k
TEXT 2360 1400 Left 2 ;R17 = decay pot 100k
TEXT 1656 992 Left 2 ;R13 & R14 control the upper and lower\nbias of the pitch mod
TEXT 2320 1888 Left 2 ;R20 = Tone pot 100k
TEXT 2704 2720 Left 2 ;R22 controls drive
TEXT 4120 1024 Left 2 ;R13 & R14 control the upper and lower\nbias of the pitch mod
TEXT 5168 2752 Left 2 ;R22 controls drive
