Version 4
SHEET 1 7188 3692
WIRE 5664 -256 5664 -288
WIRE 5664 -160 5664 -176
WIRE 5744 -160 5664 -160
WIRE 5856 -160 5824 -160
WIRE 5664 -64 5664 -80
WIRE 5744 64 5680 64
WIRE 5856 64 5856 -160
WIRE 5856 64 5824 64
WIRE 5888 64 5856 64
WIRE 6112 64 5968 64
WIRE 6144 64 6112 64
WIRE 6256 64 6224 64
WIRE 3760 144 3696 144
WIRE 3872 144 3840 144
WIRE 3904 144 3872 144
WIRE 4128 144 3984 144
WIRE 6256 144 6256 64
WIRE 5856 160 5856 64
WIRE 5888 160 5856 160
WIRE 6000 160 5952 160
WIRE 3872 240 3872 144
WIRE 3904 240 3872 240
WIRE 4016 240 3968 240
WIRE 64 256 64 224
WIRE 6112 256 6112 64
WIRE 5920 272 5920 256
WIRE 5856 288 5856 160
WIRE 5888 288 5856 288
WIRE 6000 304 6000 160
WIRE 6000 304 5952 304
WIRE 6048 304 6000 304
WIRE 5888 320 5872 320
WIRE 3184 336 3184 288
WIRE 4128 336 4128 144
WIRE 5248 336 5248 288
WIRE 3936 352 3936 336
WIRE 5872 352 5872 320
WIRE 64 368 64 336
WIRE 144 368 64 368
WIRE 3872 368 3872 240
WIRE 3904 368 3872 368
WIRE 5920 368 5920 336
WIRE 4016 384 4016 240
WIRE 4016 384 3968 384
WIRE 4064 384 4016 384
WIRE 6112 384 6112 352
WIRE 64 400 64 368
WIRE 3904 400 3888 400
WIRE 3184 432 3184 416
WIRE 3888 432 3888 400
WIRE 5248 432 5248 416
WIRE 144 448 144 368
WIRE 3936 448 3936 416
WIRE 64 528 64 480
WIRE 6624 544 6560 544
WIRE 6800 544 6704 544
WIRE 5920 592 5824 592
WIRE 5824 608 5824 592
WIRE 3968 656 3648 656
WIRE 4304 656 4048 656
WIRE 5920 672 5920 592
WIRE 6176 672 6144 672
WIRE 6192 672 6176 672
WIRE 6640 672 6640 656
WIRE 6560 688 6560 544
WIRE 6608 688 6560 688
WIRE 5824 704 5824 688
WIRE 6112 704 6112 464
WIRE 6720 704 6672 704
WIRE 6800 704 6800 544
WIRE 6800 704 6784 704
WIRE 6832 704 6800 704
WIRE 6560 720 6560 688
WIRE 6608 720 6592 720
WIRE 4528 736 4512 736
WIRE 4640 736 4608 736
WIRE 6144 736 6144 672
WIRE 6192 736 6192 672
WIRE 3648 768 3648 656
WIRE 3648 768 3600 768
WIRE 3664 768 3648 768
WIRE 3840 768 3744 768
WIRE 3936 768 3840 768
WIRE 6640 768 6640 736
WIRE 64 784 64 704
WIRE 4128 800 4128 432
WIRE 5760 800 5680 800
WIRE 5872 800 5840 800
WIRE 5920 800 5872 800
WIRE 6176 816 6176 672
WIRE 6560 816 6560 800
WIRE 3840 864 3840 848
WIRE 4560 864 4560 848
WIRE 6256 864 6256 768
WIRE 6592 864 6592 720
WIRE 6592 864 6256 864
WIRE 64 880 64 864
WIRE 4160 880 4160 832
WIRE 4304 880 4304 656
WIRE 4304 880 4160 880
WIRE 4512 880 4512 736
WIRE 4512 880 4304 880
WIRE 4528 880 4512 880
WIRE 5872 880 5872 800
WIRE 6256 880 6256 864
WIRE 3936 896 3904 896
WIRE 4640 896 4640 736
WIRE 4640 896 4592 896
WIRE 4736 896 4640 896
WIRE 4528 912 4512 912
WIRE 6176 928 6176 896
WIRE 4512 944 4512 912
WIRE 4560 960 4560 928
WIRE 5872 976 5872 960
WIRE 6256 1008 6256 960
WIRE 3696 1120 3632 1120
WIRE 3840 1120 3776 1120
WIRE 3904 1120 3904 896
WIRE 3904 1120 3840 1120
WIRE 64 1136 64 1104
WIRE 3840 1152 3840 1120
WIRE 3840 1248 3840 1232
WIRE 64 1264 64 1216
WIRE 1600 1328 1552 1328
WIRE 1776 1328 1680 1328
WIRE -1104 1424 -1168 1424
WIRE 1552 1456 1552 1328
WIRE 1632 1456 1616 1456
WIRE 1696 1456 1632 1456
WIRE 1776 1456 1776 1328
WIRE 1776 1456 1760 1456
WIRE 3744 1456 3696 1456
WIRE 3920 1456 3824 1456
WIRE 1632 1472 1632 1456
WIRE -1168 1504 -1168 1424
WIRE 1104 1552 1104 1536
WIRE 1632 1568 1632 1552
WIRE 2416 1568 2352 1568
WIRE 2528 1568 2496 1568
WIRE 2608 1568 2592 1568
WIRE 3696 1584 3696 1456
WIRE 3776 1584 3760 1584
WIRE 3840 1584 3776 1584
WIRE 3920 1584 3920 1456
WIRE 3920 1584 3904 1584
WIRE 1248 1600 1248 1552
WIRE 3776 1600 3776 1584
WIRE 1104 1648 1104 1632
WIRE 1184 1648 1104 1648
WIRE 1104 1664 1104 1648
WIRE 1632 1680 1632 1664
WIRE 2352 1680 2352 1568
WIRE 2464 1680 2352 1680
WIRE 2608 1680 2608 1568
WIRE 2608 1680 2544 1680
WIRE 3248 1680 3248 1664
WIRE -1168 1696 -1168 1584
WIRE 1552 1696 1552 1456
WIRE 1600 1696 1552 1696
WIRE 3776 1696 3776 1680
WIRE 4560 1696 4496 1696
WIRE 4672 1696 4640 1696
WIRE 4752 1696 4736 1696
WIRE 736 1712 704 1712
WIRE 848 1712 800 1712
WIRE 944 1712 912 1712
WIRE 1776 1712 1776 1456
WIRE 1776 1712 1664 1712
WIRE 1808 1712 1776 1712
WIRE 1904 1712 1872 1712
WIRE 944 1728 944 1712
WIRE 1248 1728 1248 1696
WIRE 1408 1728 1248 1728
WIRE 1552 1728 1488 1728
WIRE 1600 1728 1552 1728
WIRE 1904 1728 1904 1712
WIRE 3392 1728 3392 1680
WIRE 800 1776 800 1712
WIRE 1104 1776 1104 1744
WIRE 1552 1776 1552 1728
WIRE 1632 1776 1632 1744
WIRE 3248 1776 3248 1760
WIRE 3328 1776 3248 1776
WIRE 3248 1792 3248 1776
WIRE 2496 1808 2496 1792
WIRE 3776 1808 3776 1792
WIRE 4496 1808 4496 1696
WIRE 4608 1808 4496 1808
WIRE 4752 1808 4752 1696
WIRE 4752 1808 4688 1808
WIRE 944 1824 944 1808
WIRE 1040 1824 944 1824
WIRE 1904 1824 1904 1808
WIRE 2032 1824 1904 1824
WIRE 2352 1824 2352 1680
WIRE 2352 1824 2112 1824
WIRE 2464 1824 2352 1824
WIRE 3696 1824 3696 1584
WIRE 3744 1824 3696 1824
WIRE 1904 1840 1904 1824
WIRE 2608 1840 2608 1680
WIRE 2608 1840 2528 1840
WIRE 2656 1840 2608 1840
WIRE 2880 1840 2848 1840
WIRE 2992 1840 2944 1840
WIRE 3088 1840 3056 1840
WIRE 3920 1840 3920 1584
WIRE 3920 1840 3808 1840
WIRE 3952 1840 3920 1840
WIRE 4048 1840 4016 1840
WIRE 2464 1856 2448 1856
WIRE 3088 1856 3088 1840
WIRE 3392 1856 3392 1824
WIRE 3552 1856 3392 1856
WIRE 3696 1856 3632 1856
WIRE 3744 1856 3696 1856
WIRE 800 1872 800 1856
WIRE 2448 1872 2448 1856
WIRE 1104 1888 1104 1872
WIRE 1552 1888 1552 1856
WIRE 2496 1904 2496 1872
WIRE 2944 1904 2944 1840
WIRE 3248 1904 3248 1872
WIRE 3696 1904 3696 1856
WIRE 3776 1904 3776 1872
WIRE 944 1920 944 1904
WIRE 1600 1936 1552 1936
WIRE 1776 1936 1680 1936
WIRE 1808 1936 1776 1936
WIRE 1904 1936 1904 1920
WIRE 1904 1936 1872 1936
WIRE 4640 1936 4640 1920
WIRE 3088 1952 3088 1936
WIRE 3184 1952 3088 1952
WIRE 4176 1952 4144 1952
WIRE 4496 1952 4496 1808
WIRE 4496 1952 4256 1952
WIRE 4608 1952 4496 1952
WIRE 4752 1968 4752 1808
WIRE 4752 1968 4672 1968
WIRE 4800 1968 4752 1968
WIRE 4608 1984 4592 1984
WIRE 2944 2000 2944 1984
WIRE 4592 2000 4592 1984
WIRE 3248 2016 3248 2000
WIRE 3696 2016 3696 1984
WIRE 4640 2032 4640 2000
WIRE 3088 2048 3088 2032
WIRE 1552 2064 1552 1936
WIRE 1632 2064 1616 2064
WIRE 1696 2064 1632 2064
WIRE 1776 2064 1776 1936
WIRE 1776 2064 1760 2064
WIRE 3744 2064 3696 2064
WIRE 3920 2064 3824 2064
WIRE 3952 2064 3920 2064
WIRE 4048 2064 4016 2064
WIRE 1632 2080 1632 2064
WIRE 1632 2176 1632 2160
WIRE 3696 2192 3696 2064
WIRE 3776 2192 3760 2192
WIRE 3840 2192 3776 2192
WIRE 3920 2192 3920 2064
WIRE 3920 2192 3904 2192
WIRE 3776 2208 3776 2192
WIRE 1248 2240 1248 1728
WIRE 1280 2240 1248 2240
WIRE 1424 2240 1360 2240
WIRE 1632 2288 1632 2272
WIRE 1552 2304 1552 2064
WIRE 1600 2304 1552 2304
WIRE 3776 2304 3776 2288
WIRE 1776 2320 1776 2064
WIRE 1776 2320 1664 2320
WIRE 1248 2336 1248 2240
WIRE 1280 2336 1248 2336
WIRE 1424 2336 1424 2240
WIRE 1424 2336 1344 2336
WIRE 1520 2336 1424 2336
WIRE 1600 2336 1520 2336
WIRE 1520 2368 1520 2336
WIRE 3392 2368 3392 1856
WIRE 3424 2368 3392 2368
WIRE 3568 2368 3504 2368
WIRE 1632 2384 1632 2352
WIRE 3776 2416 3776 2400
WIRE 3696 2432 3696 2192
WIRE 3744 2432 3696 2432
WIRE 3920 2448 3920 2192
WIRE 3920 2448 3808 2448
WIRE 3392 2464 3392 2368
WIRE 3424 2464 3392 2464
WIRE 3568 2464 3568 2368
WIRE 3568 2464 3488 2464
WIRE 3664 2464 3568 2464
WIRE 3744 2464 3664 2464
WIRE 1520 2480 1520 2448
WIRE 3664 2496 3664 2464
WIRE 3776 2512 3776 2480
WIRE 1536 2608 1536 2576
WIRE 3664 2608 3664 2576
WIRE 1536 2704 1536 2688
WIRE 1536 2704 1456 2704
WIRE 1456 2720 1456 2704
WIRE 1536 2736 1536 2704
WIRE 3680 2736 3680 2704
WIRE 1248 2784 1248 2336
WIRE 1456 2800 1456 2784
WIRE 1536 2832 1536 2816
WIRE 3680 2832 3680 2816
WIRE 3680 2832 3600 2832
WIRE 3600 2848 3600 2832
WIRE 3680 2864 3680 2832
WIRE 1248 2880 1248 2864
WIRE 1312 2880 1248 2880
WIRE 1472 2880 1392 2880
WIRE 2240 2880 2240 2848
WIRE 1248 2896 1248 2880
WIRE 3392 2912 3392 2464
WIRE 3392 2912 3360 2912
WIRE 1616 2928 1536 2928
WIRE 1712 2928 1696 2928
WIRE 1728 2928 1712 2928
WIRE 1824 2928 1808 2928
WIRE 1856 2928 1824 2928
WIRE 1904 2928 1856 2928
WIRE 1984 2928 1968 2928
WIRE 2048 2928 1984 2928
WIRE 2144 2928 2112 2928
WIRE 2176 2928 2144 2928
WIRE 3600 2928 3600 2912
WIRE 3680 2960 3680 2944
WIRE 1984 2976 1984 2928
WIRE 2144 2976 2144 2928
WIRE 2352 2976 2352 1824
WIRE 1248 2992 1248 2976
WIRE 1712 2992 1712 2928
WIRE 1856 2992 1856 2928
WIRE 3456 3008 3392 3008
WIRE 3616 3008 3536 3008
WIRE 4384 3008 4384 2976
WIRE 3760 3056 3680 3056
WIRE 3856 3056 3840 3056
WIRE 3872 3056 3856 3056
WIRE 3968 3056 3952 3056
WIRE 4000 3056 3968 3056
WIRE 4048 3056 4000 3056
WIRE 4128 3056 4112 3056
WIRE 4192 3056 4128 3056
WIRE 4288 3056 4256 3056
WIRE 4320 3056 4288 3056
WIRE 1712 3072 1712 3056
WIRE 1856 3072 1856 3056
WIRE 2144 3072 2144 3056
WIRE 1984 3104 1984 3056
WIRE 2240 3104 2240 2976
WIRE 2240 3104 1984 3104
WIRE 2272 3104 2240 3104
WIRE 2352 3104 2352 3056
WIRE 2352 3104 2336 3104
WIRE 4128 3104 4128 3056
WIRE 4288 3104 4288 3056
WIRE 4496 3104 4496 1952
WIRE 3856 3120 3856 3056
WIRE 4000 3120 4000 3056
WIRE 1824 3168 1824 2928
WIRE 1296 3184 1280 3184
WIRE 1408 3184 1376 3184
WIRE 2240 3184 2240 3104
WIRE 3856 3200 3856 3184
WIRE 4000 3200 4000 3184
WIRE 4288 3200 4288 3184
WIRE 4128 3232 4128 3184
WIRE 4384 3232 4384 3104
WIRE 4384 3232 4128 3232
WIRE 4416 3232 4384 3232
WIRE 4496 3232 4496 3184
WIRE 4496 3232 4480 3232
WIRE 1824 3264 1824 3232
WIRE 1824 3264 1696 3264
WIRE 1696 3280 1696 3264
WIRE 1824 3280 1824 3264
WIRE 1344 3296 1344 3280
WIRE 2240 3296 2240 3264
WIRE 3968 3296 3968 3056
WIRE 1184 3312 1136 3312
WIRE 1280 3312 1280 3184
WIRE 1280 3312 1264 3312
WIRE 1312 3312 1280 3312
WIRE 3440 3312 3424 3312
WIRE 3552 3312 3520 3312
WIRE 4384 3312 4384 3232
WIRE 1408 3328 1408 3184
WIRE 1408 3328 1376 3328
WIRE 1472 3328 1408 3328
WIRE 1600 3328 1536 3328
WIRE 1632 3328 1600 3328
WIRE 1312 3344 1296 3344
WIRE 1600 3360 1600 3328
WIRE 1296 3376 1296 3344
WIRE 1728 3376 1696 3376
WIRE 1824 3376 1824 3344
WIRE 1824 3376 1808 3376
WIRE 1344 3392 1344 3360
WIRE 3968 3392 3968 3360
WIRE 3968 3392 3840 3392
WIRE 3840 3408 3840 3392
WIRE 3968 3408 3968 3392
WIRE 1696 3424 1696 3376
WIRE 3488 3424 3488 3408
WIRE 4384 3424 4384 3392
WIRE 3328 3440 3280 3440
WIRE 3424 3440 3424 3312
WIRE 3424 3440 3408 3440
WIRE 3456 3440 3424 3440
WIRE 1600 3456 1600 3440
WIRE 3552 3456 3552 3312
WIRE 3552 3456 3520 3456
WIRE 3616 3456 3552 3456
WIRE 3744 3456 3680 3456
WIRE 3776 3456 3744 3456
WIRE 3456 3472 3440 3472
WIRE 3744 3488 3744 3456
WIRE 3440 3504 3440 3472
WIRE 3872 3504 3840 3504
WIRE 3968 3504 3968 3472
WIRE 3968 3504 3952 3504
WIRE 3488 3520 3488 3488
WIRE 3840 3552 3840 3504
WIRE 3744 3584 3744 3568
FLAG 64 224 +12
FLAG 64 528 -12
FLAG 144 448 0
FLAG 64 880 0
FLAG 64 704 TUNE_CV
FLAG 64 1104 TRIG
FLAG 64 1264 0
FLAG 704 1712 TRIG
FLAG 800 1872 0
FLAG 944 1920 0
FLAG 1104 1888 0
FLAG 1104 1536 +12
FLAG 1248 1552 +12
FLAG 1632 1664 +12
FLAG 1632 1776 -12
FLAG 1632 1568 0
FLAG 1552 1888 0
FLAG 1248 2992 0
FLAG 1632 2272 +12
FLAG 1632 2384 -12
FLAG 1632 2176 0
FLAG 1520 2480 0
FLAG -1104 1424 NOISE
FLAG 1536 2576 +12
FLAG 1456 2800 0
FLAG 1712 3072 0
FLAG 1856 3072 0
FLAG 2144 3072 0
FLAG 2240 3296 -12
FLAG 2240 2848 +12
FLAG 2496 1792 +12
FLAG 2496 1904 -12
FLAG 2448 1872 0
FLAG 2656 1840 OUT1
FLAG -1168 1696 0
FLAG 1696 3424 0
FLAG 1600 3456 0
FLAG 1344 3280 +12
FLAG 1344 3392 -12
FLAG 1136 3312 NOISE
FLAG 1296 3376 0
FLAG 2848 1840 TRIG
FLAG 2944 2000 0
FLAG 3088 2048 0
FLAG 3248 2016 0
FLAG 3248 1664 +12
FLAG 3392 1680 +12
FLAG 3776 1792 +12
FLAG 3776 1904 -12
FLAG 3776 1696 0
FLAG 3696 2016 0
FLAG 3776 2400 +12
FLAG 3776 2512 -12
FLAG 3776 2304 0
FLAG 3664 2608 0
FLAG 3680 2704 +12
FLAG 3600 2928 0
FLAG 3856 3200 0
FLAG 4000 3200 0
FLAG 4288 3200 0
FLAG 4384 3424 -12
FLAG 4384 2976 +12
FLAG 4640 1920 +12
FLAG 4640 2032 -12
FLAG 4592 2000 0
FLAG 4800 1968 OUT2
FLAG 3840 3552 0
FLAG 3744 3584 0
FLAG 3488 3408 +12
FLAG 3488 3520 -12
FLAG 3280 3440 NOISE
FLAG 3440 3504 0
FLAG 4144 1952 TONE_OUT
FLAG 4048 1840 TONE_A
FLAG 4048 2064 TONE_B
FLAG 4032 768 +12
FLAG 4032 896 -12
FLAG 3840 864 0
FLAG 3632 1120 TONE_B
FLAG 3840 1248 0
FLAG 3936 336 +12
FLAG 3936 448 -12
FLAG 3888 432 0
FLAG 3696 144 TONE_CV
FLAG 3600 768 TONE_A
FLAG 3184 432 0
FLAG 3184 288 TONE_CV
FLAG 4560 848 +12
FLAG 4560 960 -12
FLAG 4512 944 0
FLAG 4736 896 TONE_OUT
FLAG 3360 2912 DECAY_IN
FLAG 3392 3008 DECAY_OUT
FLAG 5248 432 0
FLAG 5248 288 DECAY_CV
FLAG 6016 672 +12
FLAG 6016 800 -12
FLAG 5680 800 DECAY_IN
FLAG 5824 704 0
FLAG 5872 976 0
FLAG 5920 256 +12
FLAG 5920 368 -12
FLAG 5872 352 0
FLAG 5680 64 DECAY_CV
FLAG 6256 144 0
FLAG 6640 656 +12
FLAG 6640 768 -12
FLAG 6176 928 0
FLAG 6256 1008 -12
FLAG 6560 816 0
FLAG 6832 704 DECAY_OUT
FLAG 5664 -64 0
FLAG 5664 -288 +12
SYMBOL voltage 64 240 R0
SYMATTR InstName V1
SYMATTR Value 12
SYMBOL voltage 64 384 R0
SYMATTR InstName V2
SYMATTR Value 12
SYMBOL voltage 64 768 R0
SYMATTR InstName V3
SYMATTR Value 0.25
SYMBOL voltage 64 1120 R0
SYMATTR InstName V4
SYMATTR Value PULSE(0 3.3 2ms 10ns 10ns 5ms 198ms 1)
SYMBOL diode 736 1728 R270
WINDOW 0 32 32 VTop 2
WINDOW 3 0 32 VBottom 2
SYMATTR InstName D1
SYMBOL res 784 1760 R0
SYMATTR InstName R1
SYMATTR Value 100k
SYMBOL res 928 1712 R0
SYMATTR InstName R2
SYMATTR Value 22k
SYMBOL res 928 1808 R0
SYMATTR InstName R3
SYMATTR Value 10k
SYMBOL cap 912 1696 R90
WINDOW 0 0 32 VBottom 2
WINDOW 3 32 32 VTop 2
SYMATTR InstName C1
SYMATTR Value 100n
SYMBOL npn 1040 1776 R0
SYMATTR InstName Q1
SYMBOL res 1088 1536 R0
SYMATTR InstName R4
SYMATTR Value 4.7k
SYMBOL res 1088 1648 R0
SYMATTR InstName R5
SYMATTR Value 10k
SYMBOL pnp 1184 1696 M180
SYMATTR InstName Q2
SYMBOL OpAmps/LT1058 1632 1648 R0
SYMATTR InstName U1
SYMBOL cap 1616 1440 R90
WINDOW 0 0 32 VBottom 2
WINDOW 3 32 32 VTop 2
SYMATTR InstName C2
SYMATTR Value 4.7n
SYMBOL cap 1760 1440 R90
WINDOW 0 0 32 VBottom 2
WINDOW 3 32 32 VTop 2
SYMATTR InstName C3
SYMATTR Value 4.7n
SYMBOL res 1616 1456 R0
SYMATTR InstName R6
SYMATTR Value 2.2k
SYMBOL res 1696 1312 R90
WINDOW 0 0 56 VBottom 2
WINDOW 3 32 56 VTop 2
SYMATTR InstName R7
SYMATTR Value 1Meg
SYMBOL res 1536 1760 R0
SYMATTR InstName R8
SYMATTR Value 220
SYMBOL res 1504 1712 R90
WINDOW 0 0 56 VBottom 2
WINDOW 3 32 56 VTop 2
SYMATTR InstName R9
SYMATTR Value 10k
SYMBOL res 1232 2768 R0
SYMATTR InstName R10
SYMATTR Value 1k
SYMBOL res 1232 2880 R0
SYMATTR InstName R11
SYMATTR Value 10k
SYMBOL OpAmps/LT1058 1632 2256 R0
SYMATTR InstName U2
SYMBOL cap 1616 2048 R90
WINDOW 0 0 32 VBottom 2
WINDOW 3 32 32 VTop 2
SYMATTR InstName C4
SYMATTR Value 22n
SYMBOL cap 1760 2048 R90
WINDOW 0 0 32 VBottom 2
WINDOW 3 32 32 VTop 2
SYMATTR InstName C5
SYMATTR Value 22n
SYMBOL res 1616 2064 R0
SYMATTR InstName R12
SYMATTR Value 2.2k
SYMBOL res 1696 1920 R90
WINDOW 0 0 56 VBottom 2
WINDOW 3 32 56 VTop 2
SYMATTR InstName R13
SYMATTR Value 820k
SYMBOL res 1376 2224 R90
WINDOW 0 0 56 VBottom 2
WINDOW 3 32 56 VTop 2
SYMATTR InstName R14
SYMATTR Value 100k
SYMBOL cap 1344 2320 R90
WINDOW 0 0 32 VBottom 2
WINDOW 3 32 32 VTop 2
SYMATTR InstName C6
SYMATTR Value 4.7n
SYMBOL res 1504 2352 R0
SYMATTR InstName R15
SYMATTR Value 680
SYMBOL npn 1472 2832 R0
SYMATTR InstName Q3
SYMBOL res 1408 2864 R90
WINDOW 0 0 56 VBottom 2
WINDOW 3 32 56 VTop 2
SYMATTR InstName R31
SYMATTR Value 1k
SYMBOL res 1520 2720 R0
SYMATTR InstName R32
SYMATTR Value 470
SYMBOL res 1520 2592 R0
SYMATTR InstName R33
SYMATTR Value 100
SYMBOL cap 1440 2720 R0
SYMATTR InstName C16
SYMATTR Value 47µ
SYMBOL res 1712 2912 R90
WINDOW 0 0 56 VBottom 2
WINDOW 3 32 56 VTop 2
SYMATTR InstName R34
SYMATTR Value 15k
SYMBOL res 1824 2912 R90
WINDOW 0 0 56 VBottom 2
WINDOW 3 32 56 VTop 2
SYMATTR InstName R35
SYMATTR Value 15k
SYMBOL cap 1968 2912 R90
WINDOW 0 0 32 VBottom 2
WINDOW 3 32 32 VTop 2
SYMATTR InstName C17
SYMATTR Value 2.2n
SYMBOL cap 2112 2912 R90
WINDOW 0 0 32 VBottom 2
WINDOW 3 32 32 VTop 2
SYMATTR InstName C18
SYMATTR Value 2.2n
SYMBOL cap 1696 2992 R0
SYMATTR InstName C19
SYMATTR Value 100n
SYMBOL cap 1840 2992 R0
SYMATTR InstName C20
SYMATTR Value 1n
SYMBOL npn 2176 2880 R0
SYMATTR InstName Q4
SYMBOL res 2160 3072 R180
WINDOW 0 36 76 Left 2
WINDOW 3 36 40 Left 2
SYMATTR InstName R36
SYMATTR Value 47k
SYMBOL res 1968 2960 R0
SYMATTR InstName R37
SYMATTR Value 22k
SYMBOL res 2224 3168 R0
SYMATTR InstName R38
SYMATTR Value 22k
SYMBOL cap 1872 1696 R90
WINDOW 0 0 32 VBottom 2
WINDOW 3 32 32 VTop 2
SYMATTR InstName C21
SYMATTR Value 47n
SYMBOL cap 1872 1920 R90
WINDOW 0 0 32 VBottom 2
WINDOW 3 32 32 VTop 2
SYMATTR InstName C22
SYMATTR Value 47n
SYMBOL res 1888 1712 R0
SYMATTR InstName R39
SYMATTR Value 5k
SYMBOL res 1888 1824 R0
SYMATTR InstName R40
SYMATTR Value 5k
SYMBOL cap 2336 3088 R90
WINDOW 0 0 32 VBottom 2
WINDOW 3 32 32 VTop 2
SYMATTR InstName C23
SYMATTR Value 10n
SYMBOL res 2336 2960 R0
SYMATTR InstName R41
SYMATTR Value 27k
SYMBOL res 2128 1808 R90
WINDOW 0 0 56 VBottom 2
WINDOW 3 32 56 VTop 2
SYMATTR InstName R42
SYMATTR Value 100k
SYMBOL OpAmps/LT1058 2496 1776 R0
SYMATTR InstName U10
SYMBOL res 2560 1664 R90
WINDOW 0 0 56 VBottom 2
WINDOW 3 32 56 VTop 2
SYMATTR InstName R43
SYMATTR Value 470k
SYMBOL res 2512 1552 R90
WINDOW 0 0 56 VBottom 2
WINDOW 3 32 56 VTop 2
SYMATTR InstName R44
SYMATTR Value 100k
SYMBOL cap 2592 1552 R90
WINDOW 0 0 32 VBottom 2
WINDOW 3 32 32 VTop 2
SYMATTR InstName C24
SYMATTR Value 33µ
SYMBOL bv -1168 1488 R0
SYMATTR InstName B1
SYMATTR Value V=(white(2e6*time)/10)
SYMBOL diode 1808 3168 R0
SYMATTR InstName D2
SYMBOL cap 1808 3280 R0
SYMATTR InstName C7
SYMATTR Value 2.7n
SYMBOL npn 1632 3280 R0
SYMATTR InstName Q5
SYMBOL res 1824 3360 R90
WINDOW 0 0 56 VBottom 2
WINDOW 3 32 56 VTop 2
SYMATTR InstName R16
SYMATTR Value 100
SYMBOL res 1616 3456 R180
WINDOW 0 36 76 Left 2
WINDOW 3 36 40 Left 2
SYMATTR InstName R17
SYMATTR Value 22k
SYMBOL cap 1536 3312 R90
WINDOW 0 0 32 VBottom 2
WINDOW 3 32 32 VTop 2
SYMATTR InstName C8
SYMATTR Value 2.2n
SYMBOL OpAmps/LT1058 1344 3264 R0
SYMATTR InstName U3
SYMBOL res 1392 3168 R90
WINDOW 0 0 56 VBottom 2
WINDOW 3 32 56 VTop 2
SYMATTR InstName R18
SYMATTR Value 330k
SYMBOL res 1280 3296 R90
WINDOW 0 0 56 VBottom 2
WINDOW 3 32 56 VTop 2
SYMATTR InstName R19
SYMATTR Value 10k
SYMBOL diode 2880 1856 R270
WINDOW 0 32 32 VTop 2
WINDOW 3 0 32 VBottom 2
SYMATTR InstName D3
SYMBOL res 2928 1888 R0
SYMATTR InstName R20
SYMATTR Value 100k
SYMBOL res 3072 1840 R0
SYMATTR InstName R21
SYMATTR Value 22k
SYMBOL res 3072 1936 R0
SYMATTR InstName R22
SYMATTR Value 10k
SYMBOL cap 3056 1824 R90
WINDOW 0 0 32 VBottom 2
WINDOW 3 32 32 VTop 2
SYMATTR InstName C9
SYMATTR Value 100n
SYMBOL npn 3184 1904 R0
SYMATTR InstName Q6
SYMBOL res 3232 1664 R0
SYMATTR InstName R23
SYMATTR Value 4.7k
SYMBOL res 3232 1776 R0
SYMATTR InstName R24
SYMATTR Value 10k
SYMBOL pnp 3328 1824 M180
SYMATTR InstName Q7
SYMBOL OpAmps/LT1058 3776 1776 R0
SYMATTR InstName U4
SYMBOL cap 3760 1568 R90
WINDOW 0 0 32 VBottom 2
WINDOW 3 32 32 VTop 2
SYMATTR InstName C10
SYMATTR Value 4.7n
SYMBOL cap 3904 1568 R90
WINDOW 0 0 32 VBottom 2
WINDOW 3 32 32 VTop 2
SYMATTR InstName C11
SYMATTR Value 4.7n
SYMBOL res 3760 1584 R0
SYMATTR InstName R25
SYMATTR Value 2.2k
SYMBOL res 3840 1440 R90
WINDOW 0 0 56 VBottom 2
WINDOW 3 32 56 VTop 2
SYMATTR InstName R26
SYMATTR Value 1Meg
SYMBOL res 3680 1888 R0
SYMATTR InstName R27
SYMATTR Value 220
SYMBOL res 3648 1840 R90
WINDOW 0 0 56 VBottom 2
WINDOW 3 32 56 VTop 2
SYMATTR InstName R28
SYMATTR Value 10k
SYMBOL OpAmps/LT1058 3776 2384 R0
SYMATTR InstName U5
SYMBOL cap 3760 2176 R90
WINDOW 0 0 32 VBottom 2
WINDOW 3 32 32 VTop 2
SYMATTR InstName C12
SYMATTR Value 22n
SYMBOL cap 3904 2176 R90
WINDOW 0 0 32 VBottom 2
WINDOW 3 32 32 VTop 2
SYMATTR InstName C13
SYMATTR Value 22n
SYMBOL res 3760 2192 R0
SYMATTR InstName R45
SYMATTR Value 680
SYMBOL res 3840 2048 R90
WINDOW 0 0 56 VBottom 2
WINDOW 3 32 56 VTop 2
SYMATTR InstName R46
SYMATTR Value 820k
SYMBOL res 3520 2352 R90
WINDOW 0 0 56 VBottom 2
WINDOW 3 32 56 VTop 2
SYMATTR InstName R47
SYMATTR Value 100k
SYMBOL cap 3488 2448 R90
WINDOW 0 0 32 VBottom 2
WINDOW 3 32 32 VTop 2
SYMATTR InstName C14
SYMATTR Value 4.7n
SYMBOL res 3648 2480 R0
SYMATTR InstName R48
SYMATTR Value 680
SYMBOL npn 3616 2960 R0
SYMATTR InstName Q8
SYMBOL res 3552 2992 R90
WINDOW 0 0 56 VBottom 2
WINDOW 3 32 56 VTop 2
SYMATTR InstName R49
SYMATTR Value 1k
SYMBOL res 3664 2848 R0
SYMATTR InstName R50
SYMATTR Value 470
SYMBOL res 3664 2720 R0
SYMATTR InstName R51
SYMATTR Value 100
SYMBOL cap 3584 2848 R0
SYMATTR InstName C15
SYMATTR Value 47µ
SYMBOL res 3856 3040 R90
WINDOW 0 0 56 VBottom 2
WINDOW 3 32 56 VTop 2
SYMATTR InstName R52
SYMATTR Value 22n
SYMBOL res 3968 3040 R90
WINDOW 0 0 56 VBottom 2
WINDOW 3 32 56 VTop 2
SYMATTR InstName R53
SYMATTR Value 22n
SYMBOL cap 4112 3040 R90
WINDOW 0 0 32 VBottom 2
WINDOW 3 32 32 VTop 2
SYMATTR InstName C25
SYMATTR Value 2.2n
SYMBOL cap 4256 3040 R90
WINDOW 0 0 32 VBottom 2
WINDOW 3 32 32 VTop 2
SYMATTR InstName C26
SYMATTR Value 2.2n
SYMBOL cap 3840 3120 R0
SYMATTR InstName C27
SYMATTR Value 100n
SYMBOL cap 3984 3120 R0
SYMATTR InstName C28
SYMATTR Value 1n
SYMBOL npn 4320 3008 R0
SYMATTR InstName Q9
SYMBOL res 4304 3200 R180
WINDOW 0 36 76 Left 2
WINDOW 3 36 40 Left 2
SYMATTR InstName R54
SYMATTR Value 47k
SYMBOL res 4112 3088 R0
SYMATTR InstName R55
SYMATTR Value 22k
SYMBOL res 4368 3296 R0
SYMATTR InstName R56
SYMATTR Value 22k
SYMBOL cap 4016 1824 R90
WINDOW 0 0 32 VBottom 2
WINDOW 3 32 32 VTop 2
SYMATTR InstName C29
SYMATTR Value 47n
SYMBOL cap 4016 2048 R90
WINDOW 0 0 32 VBottom 2
WINDOW 3 32 32 VTop 2
SYMATTR InstName C30
SYMATTR Value 47n
SYMBOL cap 4480 3216 R90
WINDOW 0 0 32 VBottom 2
WINDOW 3 32 32 VTop 2
SYMATTR InstName C31
SYMATTR Value 10n
SYMBOL res 4480 3088 R0
SYMATTR InstName R59
SYMATTR Value 27k
SYMBOL res 4272 1936 R90
WINDOW 0 0 56 VBottom 2
WINDOW 3 32 56 VTop 2
SYMATTR InstName R60
SYMATTR Value 100k
SYMBOL OpAmps/LT1058 4640 1904 R0
SYMATTR InstName U6
SYMBOL res 4704 1792 R90
WINDOW 0 0 56 VBottom 2
WINDOW 3 32 56 VTop 2
SYMATTR InstName R61
SYMATTR Value 470k
SYMBOL res 4656 1680 R90
WINDOW 0 0 56 VBottom 2
WINDOW 3 32 56 VTop 2
SYMATTR InstName R62
SYMATTR Value 100k
SYMBOL cap 4736 1680 R90
WINDOW 0 0 32 VBottom 2
WINDOW 3 32 32 VTop 2
SYMATTR InstName C32
SYMATTR Value 33µ
SYMBOL diode 3952 3296 R0
SYMATTR InstName D4
SYMBOL cap 3952 3408 R0
SYMATTR InstName C33
SYMATTR Value 2.7n
SYMBOL npn 3776 3408 R0
SYMATTR InstName Q10
SYMBOL res 3968 3488 R90
WINDOW 0 0 56 VBottom 2
WINDOW 3 32 56 VTop 2
SYMATTR InstName R63
SYMATTR Value 100
SYMBOL res 3760 3584 R180
WINDOW 0 36 76 Left 2
WINDOW 3 36 40 Left 2
SYMATTR InstName R64
SYMATTR Value 22k
SYMBOL cap 3680 3440 R90
WINDOW 0 0 32 VBottom 2
WINDOW 3 32 32 VTop 2
SYMATTR InstName C34
SYMATTR Value 2.2n
SYMBOL OpAmps/LT1058 3488 3392 R0
SYMATTR InstName U7
SYMBOL res 3536 3296 R90
WINDOW 0 0 56 VBottom 2
WINDOW 3 32 56 VTop 2
SYMATTR InstName R65
SYMATTR Value 330k
SYMBOL res 3424 3424 R90
WINDOW 0 0 56 VBottom 2
WINDOW 3 32 56 VTop 2
SYMATTR InstName R66
SYMATTR Value 10k
SYMBOL LM13700 4000 752 R0
SYMATTR InstName U8
SYMBOL res 3824 752 R0
SYMATTR InstName R58
SYMATTR Value 470
SYMBOL res 4064 640 R90
WINDOW 0 0 56 VBottom 2
WINDOW 3 32 56 VTop 2
SYMATTR InstName R67
SYMATTR Value 47k
SYMBOL res 3792 1104 R90
WINDOW 0 0 56 VBottom 2
WINDOW 3 32 56 VTop 2
SYMATTR InstName R68
SYMATTR Value 100k
SYMBOL res 3856 1248 R180
WINDOW 0 36 76 Left 2
WINDOW 3 36 40 Left 2
SYMATTR InstName R69
SYMATTR Value 470
SYMBOL OpAmps/LT1058 3936 320 R0
SYMATTR InstName U9
SYMBOL res 4000 128 R90
WINDOW 0 0 56 VBottom 2
WINDOW 3 32 56 VTop 2
SYMATTR InstName 2.2k
SYMATTR Value 33k
SYMBOL res 3856 128 R90
WINDOW 0 0 56 VBottom 2
WINDOW 3 32 56 VTop 2
SYMATTR InstName R71
SYMATTR Value 10k
SYMBOL pnp 4064 432 M180
SYMATTR InstName Q11
SYMBOL res 3760 752 R90
WINDOW 0 0 56 VBottom 2
WINDOW 3 32 56 VTop 2
SYMATTR InstName R74
SYMATTR Value 100k
SYMBOL voltage 3184 320 R0
SYMATTR InstName V7
SYMATTR Value 0.005
SYMBOL OpAmps/LT1058 4560 832 R0
SYMATTR InstName U11
SYMBOL res 4624 720 R90
WINDOW 0 0 56 VBottom 2
WINDOW 3 32 56 VTop 2
SYMATTR InstName R57
SYMATTR Value 47k
SYMBOL cap 3968 224 R90
WINDOW 0 0 32 VBottom 2
WINDOW 3 32 32 VTop 2
SYMATTR InstName C35
SYMATTR Value 1n
SYMBOL voltage 5248 320 R0
SYMATTR InstName V6
SYMATTR Value 0.005
SYMBOL LM13700 5984 656 R0
SYMATTR InstName U12
SYMBOL res 5856 784 R90
WINDOW 0 0 56 VBottom 2
WINDOW 3 32 56 VTop 2
SYMATTR InstName R29
SYMATTR Value 47k
SYMBOL res 5888 976 R180
WINDOW 0 36 76 Left 2
WINDOW 3 36 40 Left 2
SYMATTR InstName R30
SYMATTR Value 330
SYMBOL res 5840 704 R180
WINDOW 0 36 76 Left 2
WINDOW 3 36 40 Left 2
SYMATTR InstName R70
SYMATTR Value 330
SYMBOL OpAmps/LT1058 5920 240 R0
SYMATTR InstName U13
SYMBOL res 5984 48 R90
WINDOW 0 0 56 VBottom 2
WINDOW 3 32 56 VTop 2
SYMATTR InstName R75
SYMATTR Value 56k
SYMBOL res 5840 48 R90
WINDOW 0 0 56 VBottom 2
WINDOW 3 32 56 VTop 2
SYMATTR InstName R76
SYMATTR Value 220k
SYMBOL pnp 6048 352 M180
SYMATTR InstName Q12
SYMBOL cap 5952 144 R90
WINDOW 0 0 32 VBottom 2
WINDOW 3 32 32 VTop 2
SYMATTR InstName C36
SYMATTR Value 1n
SYMBOL res 6096 368 R0
SYMATTR InstName R77
SYMATTR Value 4.7k
SYMBOL res 6240 48 R90
WINDOW 0 0 56 VBottom 2
WINDOW 3 32 56 VTop 2
SYMATTR InstName R78
SYMATTR Value 1k
SYMBOL OpAmps/LT1058 6640 640 R0
SYMATTR InstName U14
SYMBOL res 6160 800 R0
SYMATTR InstName R73
SYMATTR Value 47k
SYMBOL res 6240 864 R0
SYMATTR InstName R79
SYMATTR Value 22k
SYMBOL res 6720 528 R90
WINDOW 0 0 56 VBottom 2
WINDOW 3 32 56 VTop 2
SYMATTR InstName R72
SYMATTR Value 100k
SYMBOL res 6576 816 R180
WINDOW 0 36 76 Left 2
WINDOW 3 36 40 Left 2
SYMATTR InstName R80
SYMATTR Value 100k
SYMBOL diode 6720 720 R270
WINDOW 0 32 32 VTop 2
WINDOW 3 0 32 VBottom 2
SYMATTR InstName D5
SYMBOL res 5648 -272 R0
SYMATTR InstName R81
SYMATTR Value 220k
SYMBOL res 5648 -176 R0
SYMATTR InstName R82
SYMATTR Value 2.7k
SYMBOL res 5840 -176 R90
WINDOW 0 0 56 VBottom 2
WINDOW 3 32 56 VTop 2
SYMATTR InstName R83
SYMATTR Value 220k
TEXT -40 112 Left 2 !.tran 60m UIC
TEXT -48 -72 Left 2 !.lib lm13700.sub
TEXT 4160 576 Left 2 ;R67 should be a ~10k in series with a 100k trimmer for balancing
TEXT 5744 -280 Left 2 ;This gives ~150mV bias
